test/TEST190523/LossesPV.csv
Element,  Total(W), Total(var),  I2R(W), I2X(var), No-load(W), No-load(var)
Line.LV1FMAI99, 1.184837, 0.2171063, 1.184837, 0.2171063, 0, 0
Line.LV1FMAI137, 7.896132, 1.448316, 7.896132, 1.448316, 0, 0
Line.LV1FMAI148, 18.88889, 3.464932, 18.88889, 3.464932, 0, 0
Line.LV1FMAI155, 0.9826386, 0.1801694, 0.9826386, 0.1801694, 0, 0
Line.LV1FMAI230, 3.395265, 0.6226902, 3.395265, 0.6226902, 0, 0
Line.LV1FMAI235, 82.39529, 15.11438, 82.39529, 15.11438, 0, 0
Line.LV1FMAI236, 122.9515, 22.55382, 122.9515, 22.55382, 0, 0
Line.LV1FMAI279, 206.7205, 37.92105, 206.7205, 37.92105, 0, 0
Line.LV1FMAI362, 3.08234, 0.564995, 3.08234, 0.564995, 0, 0
Line.LV1FMAI366, 4.096427, 0.7510217, 4.096427, 0.7510217, 0, 0
Line.LV1FMAI379, 1.237881, 0.2268839, 1.237881, 0.2268839, 0, 0
Line.LV1FMAI389, 16.04224, 2.942445, 16.04224, 2.942445, 0, 0
Line.LV1FMAI405, 12.0081, 2.202277, 12.0081, 2.202277, 0, 0
Line.LV1FMAI461, 6.162391, 1.130284, 6.162391, 1.130284, 0, 0
Line.LV1FMAI468, 8.023091, 1.471625, 8.023091, 1.471625, 0, 0
Line.LV1FMAI486, 7.195308, 1.319733, 7.195308, 1.319733, 0, 0
Line.LV1FMAI498, 0.3946224, 0.07232301, 0.3946224, 0.07232301, 0, 0
Line.LV1FMAI533, 1.1225, 0.2056824, 1.1225, 0.2056824, 0, 0
Line.LV1FMAI534, 0.4984569, 0.09140198, 0.4984569, 0.09140198, 0, 0
Line.LV1FMAI575, 0.5307377, 0.09716248, 0.5307377, 0.09716248, 0, 0
Line.LV1FMAI582, 0.0873028, 0.01598986, 0.0873028, 0.01598986, 0, 0
Line.LV1FMAI584, 8.868407, 1.626607, 8.868407, 1.626607, 0, 0
Line.LV1FMAI596, 92.29226, 16.9299, 92.29226, 16.9299, 0, 0
Line.LV1FMAI720, 8.379775, 1.536623, 8.379775, 1.536623, 0, 0
Line.LV1FMAI730, 0.1517458, 0.02779997, 0.1517458, 0.02779997, 0, 0
Line.LV1FMAI831, 0.5829195, 0.1068245, 0.5829195, 0.1068245, 0, 0
Line.LV1FMAI838, 4.082575, 0.7485599, 4.082575, 0.7485599, 0, 0
Line.LV1FMAI861, 19.19111, 3.519959, 19.19111, 3.519959, 0, 0
Line.LV1FMAI881, 0.2653688, 0.04858123, 0.2653688, 0.04858123, 0, 0
Line.LV1FMAI909, 4.189853, 0.7683052, 4.189853, 0.7683052, 0, 0
Line.LV1FMAI913, 0.2914534, 0.0534111, 0.2914534, 0.0534111, 0, 0
Line.LV1FMAI954, 0.510672, 0.09330016, 0.510672, 0.09330016, 0, 0
Line.LV1FMAI1004, 142.1076, 26.06815, 142.1076, 26.06815, 0, 0
Line.LV1FMAI1097, 0.255224, 0.04662946, 0.255224, 0.04662946, 0, 0
Line.LV1FMAI1101, 26.61659, 4.881954, 26.61659, 4.881954, 0, 0
Line.LV1FMAI1105, 9.444335, 1.73227, 9.444335, 1.73227, 0, 0
Line.LV1FMAI1284, 0.08164203, 0.01496333, 0.08164203, 0.01496333, 0, 0
Line.LV1FMAI1296, 19.217, 3.524789, 19.217, 3.524789, 0, 0
Line.LV1FMAI1308, 2.797964, 0.5130183, 2.797964, 0.5130183, 0, 0
Line.LV1FMAI1391, 7.07951, 1.29846, 7.07951, 1.29846, 0, 0
Line.LV1FMAI1399, 2.944966, 0.5398723, 2.944966, 0.5398723, 0, 0
Line.LV1FMAI1426, 0.2615298, 0.04753455, 0.2615298, 0.04753455, 0, 0
Line.LV1FMAI1496, 13.15235, 2.412149, 13.15235, 2.412149, 0, 0
Line.LV1FMAI1498, 5.869032, 1.076151, 5.869032, 1.076151, 0, 0
Line.LV1FMAI1499, 6.473838, 1.187122, 6.473838, 1.187122, 0, 0
Line.LV1FMAI1511, 23.55372, 4.320481, 23.55372, 4.320481, 0, 0
Line.LV1FMAI1513, 8.308958, 1.523708, 8.308958, 1.523708, 0, 0
Line.LV1FMAI1520, 5.198706, 0.9534081, 5.198706, 0.9534081, 0, 0
Line.LV1FMAI1523, 0.3612301, 0.06603573, 0.3612301, 0.06603573, 0, 0
Line.LV1FMAI1559, 99.51964, 18.25574, 99.51964, 18.25574, 0, 0
Line.LV1FMAI1584, 1.842057, 0.3376931, 1.842057, 0.3376931, 0, 0
Line.LV1FMAI1748, 0.8791503, 0.1611785, 0.8791503, 0.1611785, 0, 0
Line.LV1FMAI1778, 5.766319, 1.057661, 5.766319, 1.057661, 0, 0
Line.LV1FMAI1782, 1.991715, 0.3652308, 1.991715, 0.3652308, 0, 0
Line.LV1FMAI1787, 0.8261125, 0.1514004, 0.8261125, 0.1514004, 0, 0
Line.LV1FMAI1794, 6.552983, 1.201744, 6.552983, 1.201744, 0, 0
Line.LV1FMAI1805, 0.1307655, 0.02376736, 0.1307655, 0.02376736, 0, 0
Line.LV1FMAI1841, 1.47255, 0.2699484, 1.47255, 0.2699484, 0, 0
Line.LV1FMAI7873, 0.1633425, 0.08823676, 0.1633425, 0.08823676, 0, 0
Line.LV1FMAI7923, 1.254534, 0.6777067, 1.254534, 0.6777067, 0, 0
Line.LV1FMAI8017, 0.08158433, 0.04407139, 0.08158433, 0.04407139, 0, 0
Line.LV1FMAI8047, 0.007976816, 0.004273997, 0.007976816, 0.004273997, 0, 0
Line.LV1FMAI8089, 0.0004750757, 0.0002206505, 0.0004750757, 0.0002206505, 0, 0
Line.LV1FMAI8147, 0.1409492, 0.07610593, 0.1409492, 0.07610593, 0, 0
Line.LV1FMAI8151, 0.2149705, 0.116116, 0.2149705, 0.116116, 0, 0
Line.LV1FMAI8191, 0.006012814, 0.003159277, 0.006012814, 0.003159277, 0, 0
Line.LV1FMAI8206, 0.0388603, 0.02094161, 0.0388603, 0.02094161, 0, 0
Line.LV1FMAI8214, 0.000470647, 0.0002236923, 0.000470647, 0.0002236923, 0, 0
Line.LV1FMAI8215, 3.388061E-005, -1.232111E-005, 3.388061E-005, -1.232111E-005, 0, 0
Line.LV1FMAI8216, 0.001891788, 0.0009916037, 0.001891788, 0.0009916037, 0, 0
Line.LV1FMAI8222, 0.1920259, 0.1037105, 0.1920259, 0.1037105, 0, 0
Line.LV1FMAI8235, 0.198396, 0.107102, 0.198396, 0.107102, 0, 0
Line.LV1FMAI8238, 5.57824, 8.948923, 5.57824, 8.948923, 0, 0
Line.LV1FMAI8239, 0.09857478, 0.05321389, 0.09857478, 0.05321389, 0, 0
Line.LV1FMAI8254, 0.001793222, 0.002851456, 0.001793222, 0.002851456, 0, 0
Line.LV1FMAI8255, 0.01797605, 0.008598438, 0.01797605, 0.008598438, 0, 0
Line.LV1FMAI8275, 0.001891795, 0.0009916072, 0.001891795, 0.0009916072, 0, 0
Line.LV1FMAI8283, 0.000470654, 0.0002236904, 0.000470654, 0.0002236904, 0, 0
Line.LV1FMAI8285, 0.1074911, 0.05806114, 0.1074911, 0.05806114, 0, 0
Line.LV1FMAI8286, 0.003988654, 0.002137135, 0.003988654, 0.002137135, 0, 0
Line.LV1FMAI8299, 0.07047758, 0.03805459, 0.07047758, 0.03805459, 0, 0
Line.LV1FMAI8309, 0.0960474, 0.05187388, 0.0960474, 0.05187388, 0, 0
Line.LV1FMAI8314, 0.000475072, 0.0002206652, 0.000475072, 0.0002206652, 0, 0
Line.LV1FMAI8319, 0.09857477, 0.05321388, 0.09857477, 0.05321388, 0, 0
Line.LV1FMAI8320, 3.387003E-005, -1.232265E-005, 3.387003E-005, -1.232265E-005, 0, 0
Line.LV1FMAI8324, 0.174097, 0.09398914, 0.174097, 0.09398914, 0, 0
Line.LV1FMAI8331, 0.0002139433, 7.260684E-005, 0.0002139433, 7.260684E-005, 0, 0
Line.LV1FMAI8346, 0.01134645, 0.005117663, 0.01134645, 0.005117663, 0, 0
Line.LV1FMAI8347, 0.05704784, 0.03031944, 0.05704784, 0.03031944, 0, 0
Line.LV1FMAI8376, 0.8969059, 1.439013, 0.8969059, 1.439013, 0, 0
Line.LV1FMAI8377, 2.096009, 3.362878, 2.096009, 3.362878, 0, 0
Line.LV1FMAI8378, 11.9841, 19.22755, 11.9841, 19.22755, 0, 0
Line.LV1FMAI8379, 4.286666, 6.876372, 4.286666, 6.876372, 0, 0
Line.LV1FMAI8380, 0.0001190934, -0.0001504652, 0.0001190934, -0.0001504652, 0, 0
Line.LV1FMAI8381, 0.0001190992, -0.0001504405, 0.0001190992, -0.0001504405, 0, 0
Line.LV1FMAI8382, 0.000571483, 0.0002655052, 0.000571483, 0.0002655052, 0, 0
Line.LV1FMAI8383, 0.0002857625, 0.0001327526, 0.0002857625, 0.0001327526, 0, 0
Line.LV1FMAI8384, 0.0001721213, 7.137025E-005, 0.0001721213, 7.137025E-005, 0, 0
Line.LV1FMAI8385, 0.0001721288, 7.136641E-005, 0.0001721288, 7.136641E-005, 0, 0
Line.LV1FMAI8386, 0.9790341, 1.568919, 0.9790341, 1.568919, 0, 0
Line.LV1FMAI8387, 0.01004604, 0.005369006, 0.01004604, 0.005369006, 0, 0
Line.LV1FMAI8388, 0.0006278886, 0.0002798529, 0.0006278886, 0.0002798529, 0, 0
Line.LV1FMAI8389, -3.818359E-009, -5.942736E-005, -3.818359E-009, -5.942736E-005, 0, 0
Line.LV1FMAI8390, 0.0003139645, 0.0001399354, 0.0003139645, 0.0001399354, 0, 0
Line.LV1FMAI8391, 0.00502322, 0.002684614, 0.00502322, 0.002684614, 0, 0
Line.LV1FMAI8392, 0.8630558, 1.383063, 0.8630558, 1.383063, 0, 0
Line.LV1FMAI8393, 0.7796253, 1.249365, 0.7796253, 1.249365, 0, 0
Line.LV1FMAI8394, 0.07217442, 0.1112019, 0.07217442, 0.1112019, 0, 0
Line.LV1FMAI8395, -1.52019E-009, -5.229926E-005, -1.52019E-009, -5.229926E-005, 0, 0
Line.LV1FMAI8396, 0.0104726, 0.005606623, 0.0104726, 0.005606623, 0, 0
Line.LV1FMAI8397, 0.005236071, 0.002803191, 0.005236071, 0.002803191, 0, 0
Line.LV1FMAI8398, 0.002236615, 0.001156263, 0.002236615, 0.001156263, 0, 0
Line.LV1FMAI8399, 0.003214587, 0.00168472, 0.003214587, 0.00168472, 0, 0
Line.LV1FMAI8400, 1.239624E-008, -2.614863E-005, 1.239624E-008, -2.614863E-005, 0, 0
Line.LV1FMAI8401, 0.0002670629, 8.658875E-005, 0.0002670629, 8.658875E-005, 0, 0
Line.LV1FMAI8402, 0.0001335152, 4.330872E-005, 0.0001335152, 4.330872E-005, 0, 0
Line.LV1FMAI8403, 0.0001904528, 4.519804E-005, 0.0001904528, 4.519804E-005, 0, 0
Line.LV1FMAI8404, 0.0001186911, 6.413632E-006, 0.0001186911, 6.413632E-006, 0, 0
Line.LV1FMAI8405, 9.521782E-005, 2.259054E-005, 9.521782E-005, 2.259054E-005, 0, 0
Line.LV1FMAI8406, 5.932857E-005, 3.203752E-006, 5.932857E-005, 3.203752E-006, 0, 0
Line.LV1FMAI8407, 0.03446804, 0.0530655, 0.03446804, 0.0530655, 0, 0
Line.LV1FMAI8409, 0.03771198, 0.05806002, 0.03771198, 0.05806002, 0, 0
Line.LV1FMAI8410, 0.0984805, 0.1516185, 0.0984805, 0.1516185, 0, 0
Line.LV1FMAI8467, 7.807024E-009, -2.397634E-005, 7.807024E-009, -2.397634E-005, 0, 0
Line.LV1FMAI8484, 0.0006909604, 0.0002995385, 0.0006909604, 0.0002995385, 0, 0
Line.LV1FMAI8495, 0.001125914, 0.0005521462, 0.001125914, 0.0005521462, 0, 0
Line.LV1FMAI8496, 0.0006297091, 0.0002840093, 0.0006297091, 0.0002840093, 0, 0
Line.LV1FMAI8498, 0.1381516, 0.07459483, 0.1381516, 0.07459483, 0, 0
Line.LV1FMAI8509, 0.6233328, 0.336479, 0.6233328, 0.336479, 0, 0
Line.LV1FMAI8510, 0.07592939, 0.04069012, 0.07592939, 0.04069012, 0, 0
Line.LV1FMAI8516, 1.260522E-005, -7.939213E-005, 1.260522E-005, -7.939213E-005, 0, 0
Line.LV1FMAI8556, 0.002878126, 0.0009801085, 0.002878126, 0.0009801085, 0, 0
Line.LV1FMAI8563, 0.08769507, 0.04734427, 0.08769507, 0.04734427, 0, 0
Line.LV1FMAI8593, -1.33024E-008, -2.39777E-005, -1.33024E-008, -2.39777E-005, 0, 0
Line.LV1FMAI8603, 0.3116664, 0.1682395, 0.3116664, 0.1682395, 0, 0
Line.LV1FMAI8604, 0.05704785, 0.03031953, 0.05704785, 0.03031953, 0, 0
Line.LV1FMAI8611, 0.0002139451, 7.260865E-005, 0.0002139451, 7.260865E-005, 0, 0
Line.LV1FMAI8612, 0.005673228, 0.002558846, 0.005673228, 0.002558846, 0, 0
Line.LV1FMAI8613, 6.307341E-006, -3.968959E-005, 6.307341E-006, -3.968959E-005, 0, 0
Line.LV1FMAI8614, 0.01313416, 0.01962644, 0.01313416, 0.01962644, 0, 0
Line.LV1FMAI8615, 0.0003148534, 0.0001420075, 0.0003148534, 0.0001420075, 0, 0
Line.LV1FMAI8616, 0.001439063, 0.0004900572, 0.001439063, 0.0004900572, 0, 0
Line.LV1FMAI8900, 3.219024E-009, -6.387067E-005, 3.219024E-009, -6.387067E-005, 0, 0
Line.LV1FMAI8901, 0.0004576214, 0.0001834132, 0.0004576214, 0.0001834132, 0, 0
Line.LV1FMAI8902, 0.0002288159, 9.171023E-005, 0.0002288159, 9.171023E-005, 0, 0
Line.LV1FMAI8908, 0.0003147184, 0.0001149613, 0.0003147184, 0.0001149613, 0, 0
Line.LV1FMAI8909, 0.0002549117, 8.265658E-005, 0.0002549117, 8.265658E-005, 0, 0
Line.LV1FMAI8910, 0.0001274248, 4.131474E-005, 0.0001274248, 4.131474E-005, 0, 0
Line.LV1FMAI8911, 0.0001631215, 3.30572E-005, 0.0001631215, 3.30572E-005, 0, 0
Line.LV1FMAI8912, 0.03508363, 0.01890258, 0.03508363, 0.01890258, 0, 0
Line.LV1FMAI8917, 2.970247E-005, -2.405602E-005, 2.970247E-005, -2.405602E-005, 0, 0
Line.LV1FMAI8918, -2.414158E-009, -4.011071E-005, -2.414158E-009, -4.011071E-005, 0, 0
Line.LV1FMAI8919, 3.127138E-009, -2.005722E-005, 3.127138E-009, -2.005722E-005, 0, 0
Line.LV1FMAI8920, 7.185586E-005, -1.277917E-006, 7.185586E-005, -1.277917E-006, 0, 0
Line.LV1FMAI8925, 0.0001105839, 5.971314E-006, 0.0001105839, 5.971314E-006, 0, 0
Line.LV1FMAI8926, 0.00041333, 0.0001695737, 0.00041333, 0.0001695737, 0, 0
Line.LV1FMAI8927, 0.0002066896, 8.478664E-005, 0.0002066896, 8.478664E-005, 0, 0
Line.LV1FMAI8928, 5.52919E-005, 2.995764E-006, 5.52919E-005, 2.995764E-006, 0, 0
Line.LV1FMAI8939, 0.0003745135, 0.000154583, 0.0003745135, 0.000154583, 0, 0
Line.LV1FMAI8940, 0.0001872657, 7.729348E-005, 0.0001872657, 7.729348E-005, 0, 0
Line.LV1FMAI8946, 0.02037198, 0.01096489, 0.02037198, 0.01096489, 0, 0
Line.LV1FMAI8947, 2.751242E-009, -0.0003242851, 2.751242E-009, -0.0003242851, 0, 0
Line.LV1FMAI8957, 0.01647224, 0.008820775, 0.01647224, 0.008820775, 0, 0
Line.LV1FMAI8961, 2.08537, 1.126767, 2.08537, 1.126767, 0, 0
Line.LV1FMAI8965, 0.4275048, 0.6856402, 0.4275048, 0.6856402, 0, 0
Line.LV1FMAI8966, 0.1811686, 0.09784296, 0.1811686, 0.09784296, 0, 0
Line.LV1FMAI8968, 1.166729, 0.6303822, 1.166729, 0.6303822, 0, 0
Line.LV1FMAI8969, 0.3596039, 0.1942471, 0.3596039, 0.1942471, 0, 0
Line.LV1FMAI9014, 0.4308811, 0.6908739, 0.4308811, 0.6908739, 0, 0
Line.LV1FMAI9017, 0.287551, 0.1553016, 0.287551, 0.1553016, 0, 0
Line.LV1FMAI9019, 0.004734824, 0.00243202, 0.004734824, 0.00243202, 0, 0
Line.LV1FMAI9025, 0.1350843, 0.07278026, 0.1350843, 0.07278026, 0, 0
Line.LV1FMAI9030, 0.0001872608, 7.729225E-005, 0.0001872608, 7.729225E-005, 0, 0
Line.LV1FMAI9031, 0.0001573634, 5.747399E-005, 0.0001573634, 5.747399E-005, 0, 0
Line.LV1FMAI9032, 0.0001274387, 4.130917E-005, 0.0001274387, 4.130917E-005, 0, 0
Line.LV1FMAI9033, 5.614008E-009, -3.193281E-005, 5.614008E-009, -3.193281E-005, 0, 0
Line.LV1FMAI9034, 5.529867E-005, 2.985099E-006, 5.529867E-005, 2.985099E-006, 0, 0
Line.LV1FMAI9035, 1.484929E-005, -1.203992E-005, 1.484929E-005, -1.203992E-005, 0, 0
Line.LV1FMAI9036, 0.0002288141, 9.171033E-005, 0.0002288141, 9.171033E-005, 0, 0
Line.LV1FMAI9037, 8.156211E-005, 1.652911E-005, 8.156211E-005, 1.652911E-005, 0, 0
Line.LV1FMAI9038, 0.0002066828, 8.479912E-005, 0.0002066828, 8.479912E-005, 0, 0
Line.LV1FMAI9039, -1.442402E-008, -2.005852E-005, -1.442402E-008, -2.005852E-005, 0, 0
Line.LV1FMAI9040, 3.592797E-005, -6.380815E-007, 3.592797E-005, -6.380815E-007, 0, 0
Line.LV1FMAI9566, 0.0709657, 0.0383119, 0.0709657, 0.0383119, 0, 0
Line.LV1FMAI9571, 0.008859933, 0.004750588, 0.008859933, 0.004750588, 0, 0
Line.LV1FMAI9639, 0.007899895, 0.002761445, 0.007899895, 0.002761445, 0, 0
Line.LV1FMAI9706, 0.1801632, 0.06350231, 0.1801632, 0.06350231, 0, 0
Line.LV1FMAI9729, 0.2259283, 0.1220177, 0.2259283, 0.1220177, 0, 0
Line.LV1FMAI9779, 0.01943811, 0.01046836, 0.01943811, 0.01046836, 0, 0
Line.LV1FMAI9801, 10.25757, 11.19916, 10.25757, 11.19916, 0, 0
Line.LV1FMAI9802, 0.584558, 0.6327144, 0.584558, 0.6327144, 0, 0
Line.LV1FMAI9803, 7.627411, 8.327557, 7.627411, 8.327557, 0, 0
Line.LV1FMAI9804, 0.3502594, 0.1235766, 0.3502594, 0.1235766, 0, 0
Line.LV1FMAI9805, 0.07864806, 0.08512756, 0.07864806, 0.08512756, 0, 0
Line.LV1FMAI9806, 0.01885186, 0.006625972, 0.01885186, 0.006625972, 0, 0
Line.LV1FMAI9807, 8.135619E-010, -0.001804897, 8.135619E-010, -0.001804897, 0, 0
Line.LV1FMAI9808, -2.661613E-011, -0.001102069, -2.661613E-011, -0.001102069, 0, 0
Line.LV1FMAI9809, 1.868342, 2.988604, 1.868342, 2.988604, 0, 0
Line.LV1FMAI9811, 0.1093398, 0.1684896, 0.1093398, 0.1684896, 0, 0
Line.LV1FMAI9812, 0.05987673, 0.03226936, 0.05987673, 0.03226936, 0, 0
Line.LV1FMAI9813, 0.1416474, 0.2182742, 0.1416474, 0.2182742, 0, 0
Line.LV1FMAI9814, 0.04385136, 0.06757348, 0.04385136, 0.06757348, 0, 0
Line.LV1FMAI9815, -1.862408E-010, -0.005209877, -1.862408E-010, -0.005209877, 0, 0
Line.LV1FMAI9816, 0.006531082, 0.003473345, 0.006531082, 0.003473345, 0, 0
Line.LV1FMAI9833, 0.03752636, 0.01319931, 0.03752636, 0.01319931, 0, 0
Line.LV1FMAI9852, 0.01368001, 0.007325554, 0.01368001, 0.007325554, 0, 0
Line.LV1FMAI9867, 0.1064438, 0.05746706, 0.1064438, 0.05746706, 0, 0
Line.LV1FMAI9869, 0.04837677, 0.02610727, 0.04837677, 0.02610727, 0, 0
